REMARK SMILES CCCc1nn(C)c2c(=O)[nH]c(-c3cc(S(=O)(=O)N4CCN(C)CC4)ccc3OCC)nc12
REMARK SMILES IDX 4 1 5 2 6 3 7 4 8 5 33 6 32 7 12 8 11 9 9 10 10 11 3 13 2 14
REMARK SMILES IDX 1 15 13 16 14 17 28 18 15 19 27 20 26 21 29 22 30 23 31 24
REMARK SMILES IDX 16 25 17 26 18 27 19 28 20 29 25 30 21 31 24 32 22 33 23 34
REMARK H PARENT 11 12
REMARK Flexibility Score: inf
ROOT
ATOM      1  C   UNL A   1       7.751   0.731   0.412  1.00  0.00     0.089 A 
ATOM      2  N   UNL A   1       7.767  -0.484   1.017  1.00  0.00    -0.175 NA
ATOM      3  N   UNL A   1       7.064  -0.392   2.145  1.00  0.00    -0.261 N 
ATOM      4  C   UNL A   1       6.859  -1.503   3.067  1.00  0.00     0.174 C 
ATOM      5  C   UNL A   1       6.600   0.869   2.263  1.00  0.00     0.152 A 
ATOM      6  C   UNL A   1       7.011   1.585   1.197  1.00  0.00     0.120 A 
ATOM      7  N   UNL A   1       6.699   2.887   1.030  1.00  0.00    -0.226 NA
ATOM      8  C   UNL A   1       5.944   3.531   1.978  1.00  0.00     0.144 A 
ATOM      9  N   UNL A   1       5.508   2.813   3.080  1.00  0.00    -0.305 N 
ATOM     10  C   UNL A   1       5.825   1.477   3.241  1.00  0.00     0.277 A 
ATOM     11  O   UNL A   1       5.432   0.858   4.215  1.00  0.00    -0.267 OA
ATOM     12  H   UNL A   1       4.917   3.229   3.823  1.00  0.00     0.171 HD
ENDROOT
BRANCH   1  13
ATOM     13  C   UNL A   1       8.429   1.044  -0.889  1.00  0.00     0.060 C 
BRANCH  13  14
ATOM     14  C   UNL A   1       9.492   2.136  -0.712  1.00  0.00     0.003 C 
ATOM     15  C   UNL A   1      10.192   2.440  -2.033  1.00  0.00     0.004 C 
ENDBRANCH  13  14
ENDBRANCH   1  13
BRANCH   8  16
ATOM     16  C   UNL A   1       5.633   4.993   1.746  1.00  0.00     0.061 A 
ATOM     17  C   UNL A   1       5.962   5.526   0.477  1.00  0.00     0.037 A 
ATOM     18  C   UNL A   1       5.049   5.874   2.707  1.00  0.00     0.130 A 
ATOM     19  C   UNL A   1       5.724   6.862   0.155  1.00  0.00     0.083 A 
ATOM     20  C   UNL A   1       4.816   7.223   2.357  1.00  0.00     0.048 A 
ATOM     21  C   UNL A   1       5.150   7.708   1.096  1.00  0.00     0.025 A 
BRANCH  18  22
ATOM     22  O   UNL A   1       4.737   5.427   3.949  1.00  0.00    -0.493 OA
BRANCH  22  23
ATOM     23  C   UNL A   1       4.179   6.159   4.979  1.00  0.00     0.226 C 
ATOM     24  C   UNL A   1       3.997   5.263   6.194  1.00  0.00     0.049 C 
ENDBRANCH  22  23
ENDBRANCH  18  22
BRANCH  19  25
ATOM     25  S   UNL A   1       6.150   7.486  -1.472  1.00  0.00     0.243 S 
ATOM     26  O   UNL A   1       4.870   7.766  -2.276  1.00  0.00    -0.207 OA
ATOM     27  O   UNL A   1       6.820   8.867  -1.437  1.00  0.00    -0.207 OA
BRANCH  25  28
ATOM     28  N   UNL A   1       7.137   6.416  -2.518  1.00  0.00    -0.195 NA
ATOM     29  C   UNL A   1       8.505   6.195  -2.013  1.00  0.00     0.118 C 
ATOM     30  C   UNL A   1       7.133   6.779  -3.948  1.00  0.00     0.118 C 
ATOM     31  C   UNL A   1       9.442   7.367  -2.339  1.00  0.00     0.101 C 
ATOM     32  C   UNL A   1       8.073   7.954  -4.244  1.00  0.00     0.101 C 
ATOM     33  N   UNL A   1       9.438   7.626  -3.791  1.00  0.00    -0.304 NA
ATOM     34  C   UNL A   1      10.363   8.720  -4.119  1.00  0.00     0.105 C 
ENDBRANCH  25  28
ENDBRANCH  19  25
ENDBRANCH   8  16
TORSDOF 7
