MODEL 1
REMARK VINA RESULT:     0.000      0.000      0.000
REMARK INTER + INTRA:          -1.932
REMARK INTER:                   0.000
REMARK INTRA:                  -1.932
REMARK UNBOUND:                -1.932
REMARK SMILES CCCc1nn(C)c2c(=O)[nH]c(-c3cc(S(=O)(=O)N4CCN(C)CC4)ccc3OCC)nc12
REMARK SMILES IDX 4 1 5 2 6 3 7 4 8 5 33 6 32 7 12 8 11 9 9 10 10 11 3 13 2 14
REMARK SMILES IDX 1 15 13 16 14 17 28 18 15 19 27 20 26 21 29 22 30 23 31 24
REMARK SMILES IDX 16 25 17 26 18 27 19 28 20 29 25 30 21 31 24 32 22 33 23 34
REMARK H PARENT 11 12
REMARK Flexibility Score: inf
ROOT
ATOM      1  C   UNL A   1       1.357   3.220  -1.038  1.00  0.00     0.089 A 
ATOM      2  N   UNL A   1       2.438   4.005  -0.796  1.00  0.00    -0.175 NA
ATOM      3  N   UNL A   1       3.393   3.240  -0.269  1.00  0.00    -0.261 N 
ATOM      4  C   UNL A   1       4.707   3.737   0.123  1.00  0.00     0.174 C 
ATOM      5  C   UNL A   1       2.931   1.976  -0.175  1.00  0.00     0.152 A 
ATOM      6  C   UNL A   1       1.670   1.938  -0.649  1.00  0.00     0.120 A 
ATOM      7  N   UNL A   1       0.941   0.803  -0.688  1.00  0.00    -0.226 NA
ATOM      8  C   UNL A   1       1.482  -0.368  -0.220  1.00  0.00     0.144 A 
ATOM      9  N   UNL A   1       2.779  -0.352   0.268  1.00  0.00    -0.305 N 
ATOM     10  C   UNL A   1       3.523   0.813   0.299  1.00  0.00     0.277 A 
ATOM     11  O   UNL A   1       4.663   0.811   0.729  1.00  0.00    -0.267 OA
ATOM     12  H   UNL A   1       3.258  -1.202   0.617  1.00  0.00     0.171 HD
ENDROOT
BRANCH   1  13
ATOM     13  C   UNL A   1       0.068   3.705  -1.634  1.00  0.00     0.060 C 
BRANCH  13  14
ATOM     14  C   UNL A   1      -0.057   3.282  -3.103  1.00  0.00     0.003 C 
ATOM     15  C   UNL A   1      -1.149   2.232  -3.281  1.00  0.00     0.004 C 
ENDBRANCH  13  14
ENDBRANCH   1  13
BRANCH   8  16
ATOM     16  C   UNL A   1       0.617  -1.607  -0.278  1.00  0.00     0.061 A 
ATOM     17  C   UNL A   1      -0.494  -1.575  -1.153  1.00  0.00     0.037 A 
ATOM     18  C   UNL A   1       0.827  -2.795   0.488  1.00  0.00     0.130 A 
ATOM     19  C   UNL A   1      -1.362  -2.659  -1.283  1.00  0.00     0.083 A 
ATOM     20  C   UNL A   1      -0.065  -3.881   0.338  1.00  0.00     0.048 A 
ATOM     21  C   UNL A   1      -1.144  -3.811  -0.538  1.00  0.00     0.025 A 
BRANCH  18  22
ATOM     22  O   UNL A   1       1.860  -2.875   1.363  1.00  0.00    -0.493 OA
BRANCH  22  23
ATOM     23  C   UNL A   1       1.778  -3.078   2.727  1.00  0.00     0.226 C 
ATOM     24  C   UNL A   1       1.160  -1.854   3.383  1.00  0.00     0.049 C 
ENDBRANCH  22  23
ENDBRANCH  18  22
BRANCH  19  25
ATOM     25  S   UNL A   1      -2.751  -2.571  -2.415  1.00  0.00     0.243 S 
ATOM     26  O   UNL A   1      -2.384  -1.697  -3.626  1.00  0.00    -0.207 OA
ATOM     27  O   UNL A   1      -3.084  -3.917  -3.075  1.00  0.00    -0.207 OA
BRANCH  25  28
ATOM     28  N   UNL A   1      -4.274  -1.873  -1.777  1.00  0.00    -0.195 NA
ATOM     29  C   UNL A   1      -4.401  -0.422  -2.009  1.00  0.00     0.118 C 
ATOM     30  C   UNL A   1      -4.577  -2.233  -0.379  1.00  0.00     0.118 C 
ATOM     31  C   UNL A   1      -3.604   0.403  -0.989  1.00  0.00     0.101 C 
ATOM     32  C   UNL A   1      -3.764  -1.398   0.618  1.00  0.00     0.101 C 
ATOM     33  N   UNL A   1      -4.010   0.038   0.382  1.00  0.00    -0.304 NA
ATOM     34  C   UNL A   1      -3.281   0.850   1.366  1.00  0.00     0.105 C 
ENDBRANCH  25  28
ENDBRANCH  19  25
ENDBRANCH   8  16
TORSDOF 7
ENDMDL
MODEL 2
REMARK VINA RESULT:     0.000      3.057      5.131
REMARK INTER + INTRA:          -1.932
REMARK INTER:                   0.000
REMARK INTRA:                  -1.932
REMARK UNBOUND:                -1.932
REMARK SMILES CCCc1nn(C)c2c(=O)[nH]c(-c3cc(S(=O)(=O)N4CCN(C)CC4)ccc3OCC)nc12
REMARK SMILES IDX 4 1 5 2 6 3 7 4 8 5 33 6 32 7 12 8 11 9 9 10 10 11 3 13 2 14
REMARK SMILES IDX 1 15 13 16 14 17 28 18 15 19 27 20 26 21 29 22 30 23 31 24
REMARK SMILES IDX 16 25 17 26 18 27 19 28 20 29 25 30 21 31 24 32 22 33 23 34
REMARK H PARENT 11 12
REMARK Flexibility Score: inf
ROOT
ATOM      1  C   UNL A   1       1.007  -3.298  -2.044  1.00  0.00     0.089 A 
ATOM      2  N   UNL A   1       2.094  -3.883  -2.610  1.00  0.00    -0.175 NA
ATOM      3  N   UNL A   1       3.147  -3.633  -1.833  1.00  0.00    -0.261 N 
ATOM      4  C   UNL A   1       4.498  -4.103  -2.120  1.00  0.00     0.174 C 
ATOM      5  C   UNL A   1       2.741  -2.897  -0.778  1.00  0.00     0.152 A 
ATOM      6  C   UNL A   1       1.415  -2.678  -0.886  1.00  0.00     0.120 A 
ATOM      7  N   UNL A   1       0.717  -1.971   0.027  1.00  0.00    -0.226 NA
ATOM      8  C   UNL A   1       1.367  -1.433   1.110  1.00  0.00     0.144 A 
ATOM      9  N   UNL A   1       2.729  -1.648   1.242  1.00  0.00    -0.305 N 
ATOM     10  C   UNL A   1       3.437  -2.380   0.306  1.00  0.00     0.277 A 
ATOM     11  O   UNL A   1       4.635  -2.563   0.437  1.00  0.00    -0.267 OA
ATOM     12  H   UNL A   1       3.279  -1.291   2.044  1.00  0.00     0.171 HD
ENDROOT
BRANCH   1  13
ATOM     13  C   UNL A   1      -0.380  -3.350  -2.612  1.00  0.00     0.060 C 
BRANCH  13  14
ATOM     14  C   UNL A   1      -1.262  -4.335  -1.834  1.00  0.00     0.003 C 
ATOM     15  C   UNL A   1      -2.338  -3.599  -1.041  1.00  0.00     0.004 C 
ENDBRANCH  13  14
ENDBRANCH   1  13
BRANCH   8  16
ATOM     16  C   UNL A   1       0.538  -0.640   2.096  1.00  0.00     0.061 A 
ATOM     17  C   UNL A   1      -0.862  -0.843   2.067  1.00  0.00     0.037 A 
ATOM     18  C   UNL A   1       1.055   0.299   3.040  1.00  0.00     0.130 A 
ATOM     19  C   UNL A   1      -1.723  -0.162   2.928  1.00  0.00     0.083 A 
ATOM     20  C   UNL A   1       0.164   0.976   3.902  1.00  0.00     0.048 A 
ATOM     21  C   UNL A   1      -1.208   0.746   3.845  1.00  0.00     0.025 A 
BRANCH  18  22
ATOM     22  O   UNL A   1       2.386   0.555   3.096  1.00  0.00    -0.493 OA
BRANCH  22  23
ATOM     23  C   UNL A   1       3.008   1.770   2.887  1.00  0.00     0.226 C 
ATOM     24  C   UNL A   1       2.873   2.161   1.423  1.00  0.00     0.049 C 
ENDBRANCH  22  23
ENDBRANCH  18  22
BRANCH  19  25
ATOM     25  S   UNL A   1      -3.490  -0.462   2.858  1.00  0.00     0.243 S 
ATOM     26  O   UNL A   1      -3.757  -1.922   2.459  1.00  0.00    -0.207 OA
ATOM     27  O   UNL A   1      -4.177  -0.369   4.227  1.00  0.00    -0.207 OA
BRANCH  25  28
ATOM     28  N   UNL A   1      -4.434   0.523   1.695  1.00  0.00    -0.195 NA
ATOM     29  C   UNL A   1      -4.594  -0.115   0.374  1.00  0.00     0.118 C 
ATOM     30  C   UNL A   1      -3.993   1.926   1.576  1.00  0.00     0.118 C 
ATOM     31  C   UNL A   1      -3.348   0.051  -0.507  1.00  0.00     0.101 C 
ATOM     32  C   UNL A   1      -2.745   2.062   0.695  1.00  0.00     0.101 C 
ATOM     33  N   UNL A   1      -3.009   1.481  -0.635  1.00  0.00    -0.304 NA
ATOM     34  C   UNL A   1      -1.841   1.654  -1.510  1.00  0.00     0.105 C 
ENDBRANCH  25  28
ENDBRANCH  19  25
ENDBRANCH   8  16
TORSDOF 7
ENDMDL
MODEL 3
REMARK VINA RESULT:     0.000      1.963      2.260
REMARK INTER + INTRA:          -1.932
REMARK INTER:                   0.000
REMARK INTRA:                  -1.932
REMARK UNBOUND:                -1.932
REMARK SMILES CCCc1nn(C)c2c(=O)[nH]c(-c3cc(S(=O)(=O)N4CCN(C)CC4)ccc3OCC)nc12
REMARK SMILES IDX 4 1 5 2 6 3 7 4 8 5 33 6 32 7 12 8 11 9 9 10 10 11 3 13 2 14
REMARK SMILES IDX 1 15 13 16 14 17 28 18 15 19 27 20 26 21 29 22 30 23 31 24
REMARK SMILES IDX 16 25 17 26 18 27 19 28 20 29 25 30 21 31 24 32 22 33 23 34
REMARK H PARENT 11 12
REMARK Flexibility Score: inf
ROOT
ATOM      1  C   UNL A   1       1.950   3.512   1.216  1.00  0.00     0.089 A 
ATOM      2  N   UNL A   1       2.772   4.121   2.108  1.00  0.00    -0.175 NA
ATOM      3  N   UNL A   1       3.673   3.228   2.514  1.00  0.00    -0.261 N 
ATOM      4  C   UNL A   1       4.727   3.519   3.479  1.00  0.00     0.174 C 
ATOM      5  C   UNL A   1       3.434   2.058   1.888  1.00  0.00     0.152 A 
ATOM      6  C   UNL A   1       2.369   2.210   1.074  1.00  0.00     0.120 A 
ATOM      7  N   UNL A   1       1.889   1.208   0.308  1.00  0.00    -0.226 NA
ATOM      8  C   UNL A   1       2.486  -0.027   0.353  1.00  0.00     0.144 A 
ATOM      9  N   UNL A   1       3.583  -0.204   1.180  1.00  0.00    -0.305 N 
ATOM     10  C   UNL A   1       4.075   0.828   1.957  1.00  0.00     0.277 A 
ATOM     11  O   UNL A   1       5.043   0.657   2.678  1.00  0.00    -0.267 OA
ATOM     12  H   UNL A   1       4.096  -1.103   1.248  1.00  0.00     0.171 HD
ENDROOT
BRANCH   1  13
ATOM     13  C   UNL A   1       0.799   4.181   0.523  1.00  0.00     0.060 C 
BRANCH  13  14
ATOM     14  C   UNL A   1       1.143   4.504  -0.937  1.00  0.00     0.003 C 
ATOM     15  C   UNL A   1       0.340   3.631  -1.896  1.00  0.00     0.004 C 
ENDBRANCH  13  14
ENDBRANCH   1  13
BRANCH   8  16
ATOM     16  C   UNL A   1       1.900  -1.116  -0.517  1.00  0.00     0.061 A 
ATOM     17  C   UNL A   1       1.072  -0.706  -1.589  1.00  0.00     0.037 A 
ATOM     18  C   UNL A   1       2.107  -2.518  -0.335  1.00  0.00     0.130 A 
ATOM     19  C   UNL A   1       0.475  -1.624  -2.452  1.00  0.00     0.083 A 
ATOM     20  C   UNL A   1       1.493  -3.429  -1.223  1.00  0.00     0.048 A 
ATOM     21  C   UNL A   1       0.688  -2.985  -2.268  1.00  0.00     0.025 A 
BRANCH  18  22
ATOM     22  O   UNL A   1       2.869  -2.972   0.691  1.00  0.00    -0.493 OA
BRANCH  22  23
ATOM     23  C   UNL A   1       2.467  -3.803   1.719  1.00  0.00     0.226 C 
ATOM     24  C   UNL A   1       1.491  -3.059   2.616  1.00  0.00     0.049 C 
ENDBRANCH  22  23
ENDBRANCH  18  22
BRANCH  19  25
ATOM     25  S   UNL A   1      -0.558  -1.052  -3.802  1.00  0.00     0.243 S 
ATOM     26  O   UNL A   1      -0.044   0.303  -4.316  1.00  0.00    -0.207 OA
ATOM     27  O   UNL A   1      -0.463  -1.932  -5.057  1.00  0.00    -0.207 OA
BRANCH  25  28
ATOM     28  N   UNL A   1      -2.294  -0.789  -3.440  1.00  0.00    -0.195 NA
ATOM     29  C   UNL A   1      -2.609   0.593  -3.032  1.00  0.00     0.118 C 
ATOM     30  C   UNL A   1      -2.888  -1.779  -2.522  1.00  0.00     0.118 C 
ATOM     31  C   UNL A   1      -2.268   0.858  -1.558  1.00  0.00     0.101 C 
ATOM     32  C   UNL A   1      -2.528  -1.494  -1.059  1.00  0.00     0.101 C 
ATOM     33  N   UNL A   1      -2.951  -0.128  -0.699  1.00  0.00    -0.304 NA
ATOM     34  C   UNL A   1      -2.663   0.141   0.717  1.00  0.00     0.105 C 
ENDBRANCH  25  28
ENDBRANCH  19  25
ENDBRANCH   8  16
TORSDOF 7
ENDMDL
MODEL 4
REMARK VINA RESULT:     0.000      2.931      5.364
REMARK INTER + INTRA:          -1.932
REMARK INTER:                   0.000
REMARK INTRA:                  -1.932
REMARK UNBOUND:                -1.932
REMARK SMILES CCCc1nn(C)c2c(=O)[nH]c(-c3cc(S(=O)(=O)N4CCN(C)CC4)ccc3OCC)nc12
REMARK SMILES IDX 4 1 5 2 6 3 7 4 8 5 33 6 32 7 12 8 11 9 9 10 10 11 3 13 2 14
REMARK SMILES IDX 1 15 13 16 14 17 28 18 15 19 27 20 26 21 29 22 30 23 31 24
REMARK SMILES IDX 16 25 17 26 18 27 19 28 20 29 25 30 21 31 24 32 22 33 23 34
REMARK H PARENT 11 12
REMARK Flexibility Score: inf
ROOT
ATOM      1  C   UNL A   1       1.211  -1.249   2.552  1.00  0.00     0.089 A 
ATOM      2  N   UNL A   1       2.231  -1.915   3.150  1.00  0.00    -0.175 NA
ATOM      3  N   UNL A   1       3.334  -1.714   2.430  1.00  0.00    -0.261 N 
ATOM      4  C   UNL A   1       4.637  -2.276   2.764  1.00  0.00     0.174 C 
ATOM      5  C   UNL A   1       3.025  -0.925   1.380  1.00  0.00     0.152 A 
ATOM      6  C   UNL A   1       1.713  -0.621   1.435  1.00  0.00     0.120 A 
ATOM      7  N   UNL A   1       1.107   0.162   0.518  1.00  0.00    -0.226 NA
ATOM      8  C   UNL A   1       1.835   0.668  -0.529  1.00  0.00     0.144 A 
ATOM      9  N   UNL A   1       3.187   0.370  -0.604  1.00  0.00    -0.305 N 
ATOM     10  C   UNL A   1       3.803  -0.425   0.344  1.00  0.00     0.277 A 
ATOM     11  O   UNL A   1       4.993  -0.676   0.266  1.00  0.00    -0.267 OA
ATOM     12  H   UNL A   1       3.801   0.736  -1.354  1.00  0.00     0.171 HD
ENDROOT
BRANCH   1  13
ATOM     13  C   UNL A   1      -0.201  -1.223   3.056  1.00  0.00     0.060 C 
BRANCH  13  14
ATOM     14  C   UNL A   1      -0.526   0.118   3.727  1.00  0.00     0.003 C 
ATOM     15  C   UNL A   1      -1.520   0.922   2.895  1.00  0.00     0.004 C 
ENDBRANCH  13  14
ENDBRANCH   1  13
BRANCH   8  16
ATOM     16  C   UNL A   1       1.104   1.529  -1.535  1.00  0.00     0.061 A 
ATOM     17  C   UNL A   1      -0.135   2.079  -1.128  1.00  0.00     0.037 A 
ATOM     18  C   UNL A   1       1.558   1.818  -2.858  1.00  0.00     0.130 A 
ATOM     19  C   UNL A   1      -0.897   2.884  -1.975  1.00  0.00     0.083 A 
ATOM     20  C   UNL A   1       0.770   2.637  -3.697  1.00  0.00     0.048 A 
ATOM     21  C   UNL A   1      -0.442   3.163  -3.258  1.00  0.00     0.025 A 
BRANCH  18  22
ATOM     22  O   UNL A   1       2.725   1.297  -3.313  1.00  0.00    -0.493 OA
BRANCH  22  23
ATOM     23  C   UNL A   1       2.893   0.457  -4.397  1.00  0.00     0.226 C 
ATOM     24  C   UNL A   1       2.270  -0.895  -4.088  1.00  0.00     0.049 C 
ENDBRANCH  22  23
ENDBRANCH  18  22
BRANCH  19  25
ATOM     25  S   UNL A   1      -2.457   3.565  -1.407  1.00  0.00     0.243 S 
ATOM     26  O   UNL A   1      -2.387   3.843   0.103  1.00  0.00    -0.207 OA
ATOM     27  O   UNL A   1      -2.755   4.958  -1.980  1.00  0.00    -0.207 OA
BRANCH  25  28
ATOM     28  N   UNL A   1      -3.915   2.548  -1.632  1.00  0.00    -0.195 NA
ATOM     29  C   UNL A   1      -4.227   1.698  -0.467  1.00  0.00     0.118 C 
ATOM     30  C   UNL A   1      -3.944   1.782  -2.892  1.00  0.00     0.118 C 
ATOM     31  C   UNL A   1      -3.359   0.432  -0.422  1.00  0.00     0.101 C 
ATOM     32  C   UNL A   1      -3.066   0.527  -2.821  1.00  0.00     0.101 C 
ATOM     33  N   UNL A   1      -3.492  -0.315  -1.687  1.00  0.00    -0.304 NA
ATOM     34  C   UNL A   1      -2.697  -1.550  -1.639  1.00  0.00     0.105 C 
ENDBRANCH  25  28
ENDBRANCH  19  25
ENDBRANCH   8  16
TORSDOF 7
ENDMDL
MODEL 5
REMARK VINA RESULT:     0.000      3.163      5.859
REMARK INTER + INTRA:          -1.931
REMARK INTER:                   0.000
REMARK INTRA:                  -1.931
REMARK UNBOUND:                -1.932
REMARK SMILES CCCc1nn(C)c2c(=O)[nH]c(-c3cc(S(=O)(=O)N4CCN(C)CC4)ccc3OCC)nc12
REMARK SMILES IDX 4 1 5 2 6 3 7 4 8 5 33 6 32 7 12 8 11 9 9 10 10 11 3 13 2 14
REMARK SMILES IDX 1 15 13 16 14 17 28 18 15 19 27 20 26 21 29 22 30 23 31 24
REMARK SMILES IDX 16 25 17 26 18 27 19 28 20 29 25 30 21 31 24 32 22 33 23 34
REMARK H PARENT 11 12
REMARK Flexibility Score: inf
ROOT
ATOM      1  C   UNL A   1       0.531   1.962  -3.844  1.00  0.00     0.089 A 
ATOM      2  N   UNL A   1      -0.006   2.855  -4.714  1.00  0.00    -0.175 NA
ATOM      3  N   UNL A   1      -0.960   3.530  -4.074  1.00  0.00    -0.261 N 
ATOM      4  C   UNL A   1      -1.764   4.579  -4.690  1.00  0.00     0.174 C 
ATOM      5  C   UNL A   1      -1.034   3.076  -2.807  1.00  0.00     0.152 A 
ATOM      6  C   UNL A   1      -0.116   2.103  -2.639  1.00  0.00     0.120 A 
ATOM      7  N   UNL A   1       0.053   1.456  -1.467  1.00  0.00    -0.226 NA
ATOM      8  C   UNL A   1      -0.740   1.776  -0.394  1.00  0.00     0.144 A 
ATOM      9  N   UNL A   1      -1.688   2.775  -0.544  1.00  0.00    -0.305 N 
ATOM     10  C   UNL A   1      -1.851   3.440  -1.745  1.00  0.00     0.277 A 
ATOM     11  O   UNL A   1      -2.688   4.318  -1.860  1.00  0.00    -0.267 OA
ATOM     12  H   UNL A   1      -2.306   3.083   0.230  1.00  0.00     0.171 HD
ENDROOT
BRANCH   1  13
ATOM     13  C   UNL A   1       1.641   1.009  -4.179  1.00  0.00     0.060 C 
BRANCH  13  14
ATOM     14  C   UNL A   1       2.973   1.476  -3.577  1.00  0.00     0.003 C 
ATOM     15  C   UNL A   1       3.421   0.549  -2.451  1.00  0.00     0.004 C 
ENDBRANCH  13  14
ENDBRANCH   1  13
BRANCH   8  16
ATOM     16  C   UNL A   1      -0.515   1.011   0.892  1.00  0.00     0.061 A 
ATOM     17  C   UNL A   1       0.720   0.333   1.028  1.00  0.00     0.037 A 
ATOM     18  C   UNL A   1      -1.452   0.910   1.965  1.00  0.00     0.130 A 
ATOM     19  C   UNL A   1       1.032  -0.406   2.169  1.00  0.00     0.083 A 
ATOM     20  C   UNL A   1      -1.112   0.156   3.111  1.00  0.00     0.048 A 
ATOM     21  C   UNL A   1       0.115  -0.492   3.209  1.00  0.00     0.025 A 
BRANCH  18  22
ATOM     22  O   UNL A   1      -2.663   1.516   1.880  1.00  0.00    -0.493 OA
BRANCH  22  23
ATOM     23  C   UNL A   1      -3.901   0.905   1.924  1.00  0.00     0.226 C 
ATOM     24  C   UNL A   1      -4.097   0.070   0.668  1.00  0.00     0.049 C 
ENDBRANCH  22  23
ENDBRANCH  18  22
BRANCH  19  25
ATOM     25  S   UNL A   1       2.616  -1.238   2.297  1.00  0.00     0.243 S 
ATOM     26  O   UNL A   1       3.693  -0.430   1.554  1.00  0.00    -0.207 OA
ATOM     27  O   UNL A   1       3.169  -1.276   3.729  1.00  0.00    -0.207 OA
BRANCH  25  28
ATOM     28  N   UNL A   1       2.720  -2.894   1.617  1.00  0.00    -0.195 NA
ATOM     29  C   UNL A   1       3.175  -2.929   0.215  1.00  0.00     0.118 C 
ATOM     30  C   UNL A   1       1.515  -3.720   1.824  1.00  0.00     0.118 C 
ATOM     31  C   UNL A   1       2.044  -2.602  -0.772  1.00  0.00     0.101 C 
ATOM     32  C   UNL A   1       0.402  -3.370   0.829  1.00  0.00     0.101 C 
ATOM     33  N   UNL A   1       0.904  -3.512  -0.551  1.00  0.00    -0.304 NA
ATOM     34  C   UNL A   1      -0.168  -3.234  -1.517  1.00  0.00     0.105 C 
ENDBRANCH  25  28
ENDBRANCH  19  25
ENDBRANCH   8  16
TORSDOF 7
ENDMDL
MODEL 6
REMARK VINA RESULT:     0.001      3.330      6.805
REMARK INTER + INTRA:          -1.931
REMARK INTER:                   0.000
REMARK INTRA:                  -1.931
REMARK UNBOUND:                -1.932
REMARK SMILES CCCc1nn(C)c2c(=O)[nH]c(-c3cc(S(=O)(=O)N4CCN(C)CC4)ccc3OCC)nc12
REMARK SMILES IDX 4 1 5 2 6 3 7 4 8 5 33 6 32 7 12 8 11 9 9 10 10 11 3 13 2 14
REMARK SMILES IDX 1 15 13 16 14 17 28 18 15 19 27 20 26 21 29 22 30 23 31 24
REMARK SMILES IDX 16 25 17 26 18 27 19 28 20 29 25 30 21 31 24 32 22 33 23 34
REMARK H PARENT 11 12
REMARK Flexibility Score: inf
ROOT
ATOM      1  C   UNL A   1      -1.823  -2.673   0.020  1.00  0.00     0.089 A 
ATOM      2  N   UNL A   1      -2.717  -3.384   0.754  1.00  0.00    -0.175 NA
ATOM      3  N   UNL A   1      -2.503  -3.112   2.040  1.00  0.00    -0.261 N 
ATOM      4  C   UNL A   1      -3.274  -3.695   3.132  1.00  0.00     0.174 C 
ATOM      5  C   UNL A   1      -1.483  -2.234   2.132  1.00  0.00     0.152 A 
ATOM      6  C   UNL A   1      -1.046  -1.944   0.890  1.00  0.00     0.120 A 
ATOM      7  N   UNL A   1      -0.031  -1.086   0.658  1.00  0.00    -0.226 NA
ATOM      8  C   UNL A   1       0.605  -0.484   1.715  1.00  0.00     0.144 A 
ATOM      9  N   UNL A   1       0.169  -0.766   2.999  1.00  0.00    -0.305 N 
ATOM     10  C   UNL A   1      -0.877  -1.640   3.230  1.00  0.00     0.277 A 
ATOM     11  O   UNL A   1      -1.250  -1.876   4.367  1.00  0.00    -0.267 OA
ATOM     12  H   UNL A   1       0.588  -0.331   3.842  1.00  0.00     0.171 HD
ENDROOT
BRANCH   1  13
ATOM     13  C   UNL A   1      -1.737  -2.700  -1.477  1.00  0.00     0.060 C 
BRANCH  13  14
ATOM     14  C   UNL A   1      -2.332  -1.426  -2.091  1.00  0.00     0.003 C 
ATOM     15  C   UNL A   1      -1.245  -0.557  -2.714  1.00  0.00     0.004 C 
ENDBRANCH  13  14
ENDBRANCH   1  13
BRANCH   8  16
ATOM     16  C   UNL A   1       1.744   0.459   1.397  1.00  0.00     0.061 A 
ATOM     17  C   UNL A   1       1.812   0.961   0.076  1.00  0.00     0.037 A 
ATOM     18  C   UNL A   1       2.756   0.869   2.318  1.00  0.00     0.130 A 
ATOM     19  C   UNL A   1       2.822   1.834  -0.329  1.00  0.00     0.083 A 
ATOM     20  C   UNL A   1       3.767   1.756   1.885  1.00  0.00     0.048 A 
ATOM     21  C   UNL A   1       3.797   2.231   0.577  1.00  0.00     0.025 A 
BRANCH  18  22
ATOM     22  O   UNL A   1       2.757   0.400   3.591  1.00  0.00    -0.493 OA
BRANCH  22  23
ATOM     23  C   UNL A   1       3.753  -0.336   4.203  1.00  0.00     0.226 C 
ATOM     24  C   UNL A   1       3.824  -1.716   3.567  1.00  0.00     0.049 C 
ENDBRANCH  22  23
ENDBRANCH  18  22
BRANCH  19  25
ATOM     25  S   UNL A   1       2.858   2.450  -2.014  1.00  0.00     0.243 S 
ATOM     26  O   UNL A   1       1.424   2.592  -2.549  1.00  0.00    -0.207 OA
ATOM     27  O   UNL A   1       3.389   3.887  -2.124  1.00  0.00    -0.207 OA
BRANCH  25  28
ATOM     28  N   UNL A   1       3.715   1.446  -3.226  1.00  0.00    -0.195 NA
ATOM     29  C   UNL A   1       2.838   0.493  -3.930  1.00  0.00     0.118 C 
ATOM     30  C   UNL A   1       4.944   0.797  -2.730  1.00  0.00     0.118 C 
ATOM     31  C   UNL A   1       2.558  -0.765  -3.096  1.00  0.00     0.101 C 
ATOM     32  C   UNL A   1       4.635  -0.453  -1.897  1.00  0.00     0.101 C 
ATOM     33  N   UNL A   1       3.829  -1.397  -2.695  1.00  0.00    -0.304 NA
ATOM     34  C   UNL A   1       3.573  -2.625  -1.930  1.00  0.00     0.105 C 
ENDBRANCH  25  28
ENDBRANCH  19  25
ENDBRANCH   8  16
TORSDOF 7
ENDMDL
MODEL 7
REMARK VINA RESULT:     0.001      3.255      6.108
REMARK INTER + INTRA:          -1.931
REMARK INTER:                   0.000
REMARK INTRA:                  -1.931
REMARK UNBOUND:                -1.932
REMARK SMILES CCCc1nn(C)c2c(=O)[nH]c(-c3cc(S(=O)(=O)N4CCN(C)CC4)ccc3OCC)nc12
REMARK SMILES IDX 4 1 5 2 6 3 7 4 8 5 33 6 32 7 12 8 11 9 9 10 10 11 3 13 2 14
REMARK SMILES IDX 1 15 13 16 14 17 28 18 15 19 27 20 26 21 29 22 30 23 31 24
REMARK SMILES IDX 16 25 17 26 18 27 19 28 20 29 25 30 21 31 24 32 22 33 23 34
REMARK H PARENT 11 12
REMARK Flexibility Score: inf
ROOT
ATOM      1  C   UNL A   1      -3.052   4.175   0.459  1.00  0.00     0.089 A 
ATOM      2  N   UNL A   1      -3.631   5.039  -0.413  1.00  0.00    -0.175 NA
ATOM      3  N   UNL A   1      -3.702   4.440  -1.601  1.00  0.00    -0.261 N 
ATOM      4  C   UNL A   1      -4.267   5.062  -2.793  1.00  0.00     0.174 C 
ATOM      5  C   UNL A   1      -3.174   3.203  -1.493  1.00  0.00     0.152 A 
ATOM      6  C   UNL A   1      -2.766   3.014  -0.222  1.00  0.00     0.120 A 
ATOM      7  N   UNL A   1      -2.197   1.865   0.197  1.00  0.00    -0.226 NA
ATOM      8  C   UNL A   1      -2.005   0.839  -0.694  1.00  0.00     0.144 A 
ATOM      9  N   UNL A   1      -2.420   1.010  -2.004  1.00  0.00    -0.305 N 
ATOM     10  C   UNL A   1      -3.010   2.188  -2.425  1.00  0.00     0.277 A 
ATOM     11  O   UNL A   1      -3.372   2.323  -3.581  1.00  0.00    -0.267 OA
ATOM     12  H   UNL A   1      -2.326   0.270  -2.724  1.00  0.00     0.171 HD
ENDROOT
BRANCH   1  13
ATOM     13  C   UNL A   1      -2.793   4.472   1.906  1.00  0.00     0.060 C 
BRANCH  13  14
ATOM     14  C   UNL A   1      -3.803   3.752   2.809  1.00  0.00     0.003 C 
ATOM     15  C   UNL A   1      -3.129   2.643   3.611  1.00  0.00     0.004 C 
ENDBRANCH  13  14
ENDBRANCH   1  13
BRANCH   8  16
ATOM     16  C   UNL A   1      -1.352  -0.423  -0.173  1.00  0.00     0.061 A 
ATOM     17  C   UNL A   1      -1.358  -0.617   1.229  1.00  0.00     0.037 A 
ATOM     18  C   UNL A   1      -0.724  -1.420  -0.981  1.00  0.00     0.130 A 
ATOM     19  C   UNL A   1      -0.781  -1.742   1.819  1.00  0.00     0.083 A 
ATOM     20  C   UNL A   1      -0.148  -2.551  -0.360  1.00  0.00     0.048 A 
ATOM     21  C   UNL A   1      -0.178  -2.707   1.022  1.00  0.00     0.025 A 
BRANCH  18  22
ATOM     22  O   UNL A   1      -0.664  -1.275  -2.328  1.00  0.00    -0.493 OA
BRANCH  22  23
ATOM     23  C   UNL A   1       0.475  -1.199  -3.105  1.00  0.00     0.226 C 
ATOM     24  C   UNL A   1       1.200   0.106  -2.812  1.00  0.00     0.049 C 
ENDBRANCH  22  23
ENDBRANCH  18  22
BRANCH  19  25
ATOM     25  S   UNL A   1      -0.824  -1.946   3.601  1.00  0.00     0.243 S 
ATOM     26  O   UNL A   1      -2.109  -1.322   4.167  1.00  0.00    -0.207 OA
ATOM     27  O   UNL A   1      -0.952  -3.411   4.042  1.00  0.00    -0.207 OA
BRANCH  25  28
ATOM     28  N   UNL A   1       0.512  -1.199   4.535  1.00  0.00    -0.195 NA
ATOM     29  C   UNL A   1       0.214   0.167   5.003  1.00  0.00     0.118 C 
ATOM     30  C   UNL A   1       1.835  -1.280   3.888  1.00  0.00     0.118 C 
ATOM     31  C   UNL A   1       0.409   1.216   3.898  1.00  0.00     0.101 C 
ATOM     32  C   UNL A   1       2.001  -0.225   2.787  1.00  0.00     0.101 C 
ATOM     33  N   UNL A   1       1.774   1.120   3.348  1.00  0.00    -0.304 NA
ATOM     34  C   UNL A   1       1.985   2.147   2.318  1.00  0.00     0.105 C 
ENDBRANCH  25  28
ENDBRANCH  19  25
ENDBRANCH   8  16
TORSDOF 7
ENDMDL
MODEL 8
REMARK VINA RESULT:     0.001      3.680      6.129
REMARK INTER + INTRA:          -1.930
REMARK INTER:                   0.000
REMARK INTRA:                  -1.930
REMARK UNBOUND:                -1.932
REMARK SMILES CCCc1nn(C)c2c(=O)[nH]c(-c3cc(S(=O)(=O)N4CCN(C)CC4)ccc3OCC)nc12
REMARK SMILES IDX 4 1 5 2 6 3 7 4 8 5 33 6 32 7 12 8 11 9 9 10 10 11 3 13 2 14
REMARK SMILES IDX 1 15 13 16 14 17 28 18 15 19 27 20 26 21 29 22 30 23 31 24
REMARK SMILES IDX 16 25 17 26 18 27 19 28 20 29 25 30 21 31 24 32 22 33 23 34
REMARK H PARENT 11 12
REMARK Flexibility Score: inf
ROOT
ATOM      1  C   UNL A   1       0.152   0.797  -2.987  1.00  0.00     0.089 A 
ATOM      2  N   UNL A   1      -0.365   1.564  -3.981  1.00  0.00    -0.175 NA
ATOM      3  N   UNL A   1      -0.727   2.733  -3.454  1.00  0.00    -0.261 N 
ATOM      4  C   UNL A   1      -1.326   3.819  -4.221  1.00  0.00     0.174 C 
ATOM      5  C   UNL A   1      -0.443   2.718  -2.135  1.00  0.00     0.152 A 
ATOM      6  C   UNL A   1       0.106   1.527  -1.822  1.00  0.00     0.120 A 
ATOM      7  N   UNL A   1       0.501   1.214  -0.570  1.00  0.00    -0.226 NA
ATOM      8  C   UNL A   1       0.334   2.126   0.442  1.00  0.00     0.144 A 
ATOM      9  N   UNL A   1      -0.225   3.357   0.142  1.00  0.00    -0.305 N 
ATOM     10  C   UNL A   1      -0.620   3.674  -1.145  1.00  0.00     0.277 A 
ATOM     11  O   UNL A   1      -1.109   4.763  -1.394  1.00  0.00    -0.267 OA
ATOM     12  H   UNL A   1      -0.360   4.101   0.851  1.00  0.00     0.171 HD
ENDROOT
BRANCH   1  13
ATOM     13  C   UNL A   1       0.678  -0.596  -3.171  1.00  0.00     0.060 C 
BRANCH  13  14
ATOM     14  C   UNL A   1       2.212  -0.616  -3.156  1.00  0.00     0.003 C 
ATOM     15  C   UNL A   1       2.740  -1.305  -1.902  1.00  0.00     0.004 C 
ENDBRANCH  13  14
ENDBRANCH   1  13
BRANCH   8  16
ATOM     16  C   UNL A   1       0.785   1.719   1.828  1.00  0.00     0.061 A 
ATOM     17  C   UNL A   1       1.688   0.633   1.916  1.00  0.00     0.037 A 
ATOM     18  C   UNL A   1       0.360   2.333   3.046  1.00  0.00     0.130 A 
ATOM     19  C   UNL A   1       2.166   0.170   3.142  1.00  0.00     0.083 A 
ATOM     20  C   UNL A   1       0.859   1.847   4.276  1.00  0.00     0.048 A 
ATOM     21  C   UNL A   1       1.750   0.779   4.320  1.00  0.00     0.025 A 
BRANCH  18  22
ATOM     22  O   UNL A   1      -0.526   3.360   3.026  1.00  0.00    -0.493 OA
BRANCH  22  23
ATOM     23  C   UNL A   1      -1.774   3.391   3.616  1.00  0.00     0.226 C 
ATOM     24  C   UNL A   1      -2.697   2.421   2.894  1.00  0.00     0.049 C 
ENDBRANCH  22  23
ENDBRANCH  18  22
BRANCH  19  25
ATOM     25  S   UNL A   1       3.319  -1.203   3.199  1.00  0.00     0.243 S 
ATOM     26  O   UNL A   1       4.219  -1.181   1.954  1.00  0.00    -0.207 OA
ATOM     27  O   UNL A   1       4.340  -1.091   4.341  1.00  0.00    -0.207 OA
BRANCH  25  28
ATOM     28  N   UNL A   1       2.615  -2.851   3.242  1.00  0.00    -0.195 NA
ATOM     29  C   UNL A   1       2.451  -3.457   1.907  1.00  0.00     0.118 C 
ATOM     30  C   UNL A   1       1.391  -2.977   4.055  1.00  0.00     0.118 C 
ATOM     31  C   UNL A   1       1.195  -2.947   1.187  1.00  0.00     0.101 C 
ATOM     32  C   UNL A   1       0.154  -2.456   3.314  1.00  0.00     0.101 C 
ATOM     33  N   UNL A   1       0.005  -3.169   2.031  1.00  0.00    -0.304 NA
ATOM     34  C   UNL A   1      -1.208  -2.721   1.334  1.00  0.00     0.105 C 
ENDBRANCH  25  28
ENDBRANCH  19  25
ENDBRANCH   8  16
TORSDOF 7
ENDMDL
MODEL 9
REMARK VINA RESULT:     0.004      2.424      2.834
REMARK INTER + INTRA:          -1.927
REMARK INTER:                   0.000
REMARK INTRA:                  -1.927
REMARK UNBOUND:                -1.932
REMARK SMILES CCCc1nn(C)c2c(=O)[nH]c(-c3cc(S(=O)(=O)N4CCN(C)CC4)ccc3OCC)nc12
REMARK SMILES IDX 4 1 5 2 6 3 7 4 8 5 33 6 32 7 12 8 11 9 9 10 10 11 3 13 2 14
REMARK SMILES IDX 1 15 13 16 14 17 28 18 15 19 27 20 26 21 29 22 30 23 31 24
REMARK SMILES IDX 16 25 17 26 18 27 19 28 20 29 25 30 21 31 24 32 22 33 23 34
REMARK H PARENT 11 12
REMARK Flexibility Score: inf
ROOT
ATOM      1  C   UNL A   1       2.721   3.033   0.438  1.00  0.00     0.089 A 
ATOM      2  N   UNL A   1       3.405   3.940   1.181  1.00  0.00    -0.175 NA
ATOM      3  N   UNL A   1       3.510   3.462   2.420  1.00  0.00    -0.261 N 
ATOM      4  C   UNL A   1       4.184   4.164   3.507  1.00  0.00     0.174 C 
ATOM      5  C   UNL A   1       2.901   2.260   2.472  1.00  0.00     0.152 A 
ATOM      6  C   UNL A   1       2.406   1.970   1.252  1.00  0.00     0.120 A 
ATOM      7  N   UNL A   1       1.743   0.825   0.989  1.00  0.00    -0.226 NA
ATOM      8  C   UNL A   1       1.542  -0.090   1.992  1.00  0.00     0.144 A 
ATOM      9  N   UNL A   1       2.046   0.187   3.253  1.00  0.00    -0.305 N 
ATOM     10  C   UNL A   1       2.731   1.359   3.514  1.00  0.00     0.277 A 
ATOM     11  O   UNL A   1       3.170   1.586   4.629  1.00  0.00    -0.267 OA
ATOM     12  H   UNL A   1       1.950  -0.467   4.051  1.00  0.00     0.171 HD
ENDROOT
BRANCH   1  13
ATOM     13  C   UNL A   1       2.394   3.197  -1.017  1.00  0.00     0.060 C 
BRANCH  13  14
ATOM     14  C   UNL A   1       3.319   2.343  -1.893  1.00  0.00     0.003 C 
ATOM     15  C   UNL A   1       2.559   1.182  -2.527  1.00  0.00     0.004 C 
ENDBRANCH  13  14
ENDBRANCH   1  13
BRANCH   8  16
ATOM     16  C   UNL A   1       0.783  -1.351   1.644  1.00  0.00     0.061 A 
ATOM     17  C   UNL A   1       0.668  -1.673   0.271  1.00  0.00     0.037 A 
ATOM     18  C   UNL A   1       0.166  -2.228   2.588  1.00  0.00     0.130 A 
ATOM     19  C   UNL A   1      -0.013  -2.809  -0.165  1.00  0.00     0.083 A 
ATOM     20  C   UNL A   1      -0.518  -3.374   2.122  1.00  0.00     0.048 A 
ATOM     21  C   UNL A   1      -0.605  -3.658   0.763  1.00  0.00     0.025 A 
BRANCH  18  22
ATOM     22  O   UNL A   1       0.219  -1.957   3.915  1.00  0.00    -0.493 OA
BRANCH  22  23
ATOM     23  C   UNL A   1      -0.851  -1.744   4.763  1.00  0.00     0.226 C 
ATOM     24  C   UNL A   1      -1.523  -0.427   4.407  1.00  0.00     0.049 C 
ENDBRANCH  22  23
ENDBRANCH  18  22
BRANCH  19  25
ATOM     25  S   UNL A   1      -0.121  -3.179  -1.917  1.00  0.00     0.243 S 
ATOM     26  O   UNL A   1       1.166  -2.727  -2.626  1.00  0.00    -0.207 OA
ATOM     27  O   UNL A   1      -0.147  -4.683  -2.220  1.00  0.00    -0.207 OA
BRANCH  25  28
ATOM     28  N   UNL A   1      -1.456  -2.405  -2.828  1.00  0.00    -0.195 NA
ATOM     29  C   UNL A   1      -1.069  -1.142  -3.484  1.00  0.00     0.118 C 
ATOM     30  C   UNL A   1      -2.717  -2.266  -2.075  1.00  0.00     0.118 C 
ATOM     31  C   UNL A   1      -1.059   0.043  -2.507  1.00  0.00     0.101 C 
ATOM     32  C   UNL A   1      -2.677  -1.080  -1.104  1.00  0.00     0.101 C 
ATOM     33  N   UNL A   1      -2.371   0.159  -1.844  1.00  0.00    -0.304 NA
ATOM     34  C   UNL A   1      -2.385   1.315  -0.935  1.00  0.00     0.105 C 
ENDBRANCH  25  28
ENDBRANCH  19  25
ENDBRANCH   8  16
TORSDOF 7
ENDMDL
